Version 4.1
SHEET 1 880 680
WIRE 80 -320 16 -320
WIRE 80 -304 80 -320
WIRE -240 -272 -848 -272
WIRE -128 -272 -176 -272
WIRE -64 -272 -128 -272
WIRE 16 -272 16 -320
WIRE -1136 -240 -1312 -240
WIRE -960 -240 -1072 -240
WIRE -656 -208 -720 -208
WIRE -128 -208 -128 -272
WIRE -656 -176 -656 -208
WIRE -144 -160 -208 -160
WIRE 0 -160 -48 -160
WIRE 160 -160 0 -160
WIRE 160 -144 160 -160
WIRE 176 -144 160 -144
WIRE 336 -144 256 -144
WIRE 400 -144 336 -144
WIRE 464 -144 400 -144
WIRE -1072 -128 -1232 -128
WIRE -960 -96 -960 -240
WIRE -960 -96 -1120 -96
WIRE -848 -96 -848 -272
WIRE -848 -96 -960 -96
WIRE -1232 -80 -1232 -128
WIRE -1072 -80 -1072 -128
WIRE -960 -80 -960 -96
WIRE -1312 -64 -1312 -240
WIRE -1312 -64 -1344 -64
WIRE -1264 -64 -1312 -64
WIRE -1120 -48 -1120 -96
WIRE -1120 -48 -1136 -48
WIRE -720 -48 -720 -208
WIRE -1264 -32 -1312 -32
WIRE -752 -32 -816 -32
WIRE -560 -16 -624 -16
WIRE -240 -16 -560 -16
WIRE -128 -16 -176 -16
WIRE -64 -16 -128 -16
WIRE 80 -16 16 -16
WIRE -752 0 -960 0
WIRE -720 32 -720 16
WIRE -432 32 -720 32
WIRE -1232 48 -1232 -16
WIRE -1232 48 -1568 48
WIRE -128 48 -128 -16
WIRE -1312 80 -1312 -32
WIRE -896 80 -1312 80
WIRE -816 80 -816 -32
WIRE -640 80 -752 80
WIRE -560 80 -560 -16
WIRE -560 80 -640 80
WIRE -1312 96 -1312 80
WIRE -144 96 -224 96
WIRE 16 96 -48 96
WIRE 176 96 16 96
WIRE 336 96 256 96
WIRE 384 96 336 96
WIRE 464 96 384 96
WIRE -960 144 -960 0
WIRE -1424 240 -1424 -64
WIRE -640 240 -640 80
WIRE -640 240 -1424 240
FLAG -1072 0 0
FLAG -1312 176 0
FLAG -960 208 0
FLAG -960 -96 Sine
FLAG -656 -96 0
FLAG -560 -16 cosine
FLAG -432 112 0
FLAG -1568 128 0
FLAG -96 -160 0
FLAG -96 96 0
FLAG -208 -80 0
FLAG 0 -80 0
FLAG 80 -224 0
FLAG -224 176 0
FLAG 80 64 0
FLAG 16 176 0
FLAG 336 -80 0
FLAG 336 160 0
FLAG 384 96 I
FLAG 400 -144 Q
SYMBOL voltage -1072 -96 R0
SYMATTR InstName V1
SYMATTR Value 5
SYMBOL res -1328 -80 R90
WINDOW 0 0 56 VBottom 2
WINDOW 3 32 56 VTop 2
SYMATTR InstName R1
SYMATTR Value 1.5k
SYMBOL voltage -1312 80 R0
WINDOW 123 0 0 Left 0
WINDOW 39 0 0 Left 0
SYMATTR InstName V2
SYMATTR Value 2.5
SYMBOL res -800 64 R90
WINDOW 0 0 56 VBottom 2
WINDOW 3 32 56 VTop 2
SYMATTR InstName R2
SYMATTR Value 1.5k
SYMBOL cap -976 144 R0
SYMATTR InstName C1
SYMATTR Value 1n
SYMBOL res -976 -96 R0
SYMATTR InstName R3
SYMATTR Value 1.5k
SYMBOL cap -1072 -256 R90
WINDOW 0 0 32 VBottom 2
WINDOW 3 32 32 VTop 2
SYMATTR InstName C2
SYMATTR Value 1n
SYMBOL cap -752 64 R90
WINDOW 0 0 32 VBottom 2
WINDOW 3 32 32 VTop 2
SYMATTR InstName C3
SYMATTR Value 1n
SYMBOL voltage -656 -192 R0
WINDOW 123 0 0 Left 0
WINDOW 39 0 0 Left 0
SYMATTR InstName V3
SYMATTR Value 5
SYMBOL UA741 -1232 -48 R0
SYMATTR InstName U1
SYMBOL UA741 -720 -16 R0
SYMATTR InstName U2
SYMBOL voltage -432 16 R0
SYMATTR InstName V4
SYMATTR Value 0
SYMBOL voltage -1568 32 R0
SYMATTR InstName V5
SYMATTR Value 0
SYMBOL cap -176 -288 R90
WINDOW 0 0 32 VBottom 2
WINDOW 3 32 32 VTop 2
SYMATTR InstName C4
SYMATTR Value 1.7n
SYMBOL cap -176 -32 R90
WINDOW 0 0 32 VBottom 2
WINDOW 3 32 32 VTop 2
SYMATTR InstName C5
SYMATTR Value 1.7n
SYMBOL res 32 -288 R90
WINDOW 0 0 56 VBottom 2
WINDOW 3 32 56 VTop 2
SYMATTR InstName R4
SYMATTR Value 100k
SYMBOL res 32 -32 R90
WINDOW 0 0 56 VBottom 2
WINDOW 3 32 56 VTop 2
SYMATTR InstName R5
SYMATTR Value 100k
SYMBOL nmos4 -48 -208 R90
WINDOW 3 28 64 Left 2
SYMATTR Value CMOSN
SYMATTR InstName M1
SYMATTR Value2 l=0.18u w=1.8u ad=0.81u as=0.81u pd=4.5u ps=4.5u
SYMBOL nmos4 -48 48 R90
WINDOW 3 38 69 Left 2
SYMATTR Value CMOSN
SYMATTR InstName M2
SYMATTR Value2 l=0.18u w=1.8u ad=0.81u as=0.81u pd=4.5u ps=4.5u
SYMBOL voltage -208 -176 R0
WINDOW 123 0 0 Left 0
WINDOW 39 0 0 Left 0
SYMATTR InstName VIN1
SYMATTR Value SINE(0 0.1 67k)
SYMBOL res -16 -176 R0
SYMATTR InstName R6
SYMATTR Value 1k
SYMBOL voltage 80 -320 R0
WINDOW 123 0 0 Left 0
WINDOW 39 0 0 Left 0
SYMATTR InstName V7
SYMATTR Value 0.6
SYMBOL voltage -224 80 R0
WINDOW 123 0 0 Left 0
WINDOW 39 0 0 Left 0
SYMATTR InstName VIN2
SYMATTR Value SINE(0 0.1 67k)
SYMBOL voltage 80 -32 R0
SYMATTR InstName V8
SYMATTR Value 0.6
SYMBOL res 0 80 R0
SYMATTR InstName R7
SYMATTR Value 1k
SYMBOL res 272 -160 R90
WINDOW 0 0 56 VBottom 2
WINDOW 3 32 56 VTop 2
SYMATTR InstName R8
SYMATTR Value 7957
SYMBOL res 272 80 R90
WINDOW 0 0 56 VBottom 2
WINDOW 3 32 56 VTop 2
SYMATTR InstName R9
SYMATTR Value 7957
SYMBOL cap 320 -144 R0
SYMATTR InstName C6
SYMATTR Value 10n
SYMBOL cap 320 96 R0
SYMATTR InstName C7
SYMATTR Value 10n
TEXT -1368 -176 Left 2 !.include "UA741_301.txt"
TEXT -464 -88 Left 2 !.tran 5m
TEXT -1456 -280 Left 2 !.include "TSMC_180nm.txt"
